data/rao/native_cracs/cim-crac-network.xiidm
<?xml version="1.0" encoding="UTF-8"?>
<iidm:network xmlns:iidm="http://www.powsybl.org/schema/iidm/1_16" xmlns:crc="http://www.powsybl.org/schema/iidm/ext/coordinated_reactive_control/1_0" xmlns:apc="http://www.powsybl.org/schema/iidm/ext/active_power_control/1_2" xmlns:ld="http://www.itesla_project.eu/schema/iidm/ext/load_detail/1_0" xmlns:ctc="http://www.powsybl.org/schema/iidm/ext/cgmes_tap_changers/1_0" xmlns:cblbn="http://www.powsybl.org/schema/iidm/ext/cgmes_boundary_line_boundary_node/1_0" xmlns:refpri="http://www.powsybl.org/schema/iidm/ext/reference_priorities/1_0" xmlns:cmm="http://www.powsybl.org/schema/iidm/ext/cgmes_metadata_models/1_0" xmlns:bv="http://www.powsybl.org/schema/iidm/ext/base_voltage_mapping/1_0" xmlns:cc="http://www.powsybl.org/schema/iidm/ext/cim_characteristics/1_0" xmlns:vprpc="http://www.powsybl.org/schema/iidm/ext/voltage_per_reactive_power_control/1_0" id="urn:uuid:4f4a3f29-6892-49ea-bfc1-92051973c799+urn:uuid:9e7050a8-960b-4e1a-8e34-7f56bc2b2a7b" caseDate="2021-02-09T19:30:00.000Z" forecastDistance="0" sourceFormat="CGMES" minimumValidationLevel="STEADY_STATE_HYPOTHESIS">
    <iidm:network id="urn:uuid:4f4a3f29-6892-49ea-bfc1-92051973c799" caseDate="2021-02-09T19:30:00.000Z" forecastDistance="0" sourceFormat="CGMES" minimumValidationLevel="STEADY_STATE_HYPOTHESIS">
        <iidm:substation id="_c49942d6-8b01-4b01-b5e8-f1180f84906c" name="PP_Amsterdam" country="NL" geographicalTags="TENNET TSO B.V.">
            <iidm:property name="CGMES.regionName" value="NL"/>
            <iidm:property name="CGMES.subRegionId" value="_e58fc3bf-8c9f-450d-b3f7-9a1d19bd3bb4"/>
            <iidm:property name="CGMES.regionId" value="_efc79870-d704-485e-a37b-0cf2e8e7657b"/>
            <iidm:voltageLevel id="_8d8a82ba-b5b0-4e94-861a-192af055f2b8" name="15.8" nominalV="15.75" lowVoltageLimit="14.175" highVoltageLimit="17.325" topologyKind="NODE_BREAKER">
                <iidm:property name="CGMES.lowVoltageLimit" value="14.175"/>
                <iidm:property name="CGMES.highVoltageLimit" value="17.325"/>
                <iidm:nodeBreakerTopology>
                    <iidm:busbarSection id="_53da4025-9d51-4eaf-b0d2-ce27fbe740d2" name="NL-Busbar_3" node="0">
                        <iidm:alias type="CGMES.Terminal1">_0f199d49-0093-4b51-b357-70371424d174</iidm:alias>
                    </iidm:busbarSection>
                    <iidm:busbarSection id="_e6d49e32-b634-4b86-a8ca-15159f1497b5" name="NL-Busbar_5" node="2">
                        <iidm:alias type="CGMES.Terminal1">_42800bad-5e47-42e6-b9b0-1fb8fc5831aa</iidm:alias>
                    </iidm:busbarSection>
                    <iidm:switch id="_5a094c9f-0af5-48dc-94e9-89c6c220023c" name="busbarcoupler 1" kind="BREAKER" retained="false" open="true" node1="8" node2="7">
                        <iidm:alias type="CGMES.Terminal2">_f04ec73d-b94a-4b7e-a3d6-b1234fc37385</iidm:alias>
                        <iidm:alias type="CGMES.Terminal1">_9f984b04-1736-43d2-9122-3a17fc8aea5f</iidm:alias>
                        <iidm:property name="CGMES.originalClass" value="Breaker"/>
                        <iidm:property name="CGMES.normalOpen" value="false"/>
                    </iidm:switch>
                    <iidm:switch id="_1ea8f512-451c-40d3-a312-7c4e71d9dbcb" name="NL_BREAKER_1" kind="BREAKER" retained="false" open="false" node1="1" node2="2">
                        <iidm:alias type="CGMES.Terminal1">_e19e01f7-eb9b-4ce5-a6fe-4bb4ef0ce6c3</iidm:alias>
                        <iidm:alias type="CGMES.Terminal2">_28797d21-df04-4be6-806b-3be26b040d6a</iidm:alias>
                        <iidm:property name="CGMES.originalClass" value="Breaker"/>
                        <iidm:property name="CGMES.normalOpen" value="false"/>
                    </iidm:switch>
                    <iidm:switch id="_0c2fa351-239d-463b-a826-0b8615bf6c3c" name="NL_BREAKER_4" kind="BREAKER" retained="false" open="false" node1="3" node2="0">
                        <iidm:alias type="CGMES.Terminal2">_3179d96c-7ecd-4f8a-b3f0-f24b62a16e87</iidm:alias>
                        <iidm:alias type="CGMES.Terminal1">_7fae7c9d-952f-4321-830d-aa667d21969d</iidm:alias>
                        <iidm:property name="CGMES.originalClass" value="Breaker"/>
                        <iidm:property name="CGMES.normalOpen" value="false"/>
                    </iidm:switch>
                    <iidm:switch id="_f04ec73d-b94a-4b7e-a3d6-b1234fc37385_SW_fict" name="_f04ec73d-b94a-4b7e-a3d6-b1234fc37385" fictitious="true" kind="BREAKER" retained="false" open="true" node1="7" node2="0">
                        <iidm:property name="CGMES.Terminal" value="_f04ec73d-b94a-4b7e-a3d6-b1234fc37385"/>
                        <iidm:property name="CGMES.isCreatedForDisconnectedTerminal" value="true"/>
                    </iidm:switch>
                    <iidm:switch id="_9f984b04-1736-43d2-9122-3a17fc8aea5f_SW_fict" name="_9f984b04-1736-43d2-9122-3a17fc8aea5f" fictitious="true" kind="BREAKER" retained="false" open="true" node1="2" node2="8">
                        <iidm:property name="CGMES.Terminal" value="_9f984b04-1736-43d2-9122-3a17fc8aea5f"/>
                        <iidm:property name="CGMES.isCreatedForDisconnectedTerminal" value="true"/>
                    </iidm:switch>
                    <iidm:internalConnection node1="0" node2="4"/>
                    <iidm:internalConnection node1="0" node2="5"/>
                    <iidm:internalConnection node1="2" node2="6"/>
                    <iidm:bus v="16.01775" angle="-1.724105" nodes="0,3,4,5"/>
                    <iidm:bus v="15.85663" angle="0.2074479" nodes="1,2,6"/>
                </iidm:nodeBreakerTopology>
                <iidm:generator id="_1dc9afba-23b5-41a0-8540-b479ed8baf4b" name="NL-G3" energySource="OTHER" minP="130.0" maxP="250.0" ratedS="250.0" voltageRegulatorOn="true" targetP="150.0" targetV="16.01775" targetQ="83.296" node="4" p="-150.0" q="-20.66022">
                    <iidm:alias type="CGMES.Terminal1">_f04ecab5-1a12-4cc0-ba56-b157ebf11a42</iidm:alias>
                    <iidm:property name="CGMES.synchronousMachineType" value="generator"/>
                    <iidm:property name="CGMES.mode" value="http://iec.ch/tc57/cim100#regulatingcontrolmodekind.voltage"/>
                    <iidm:property name="CGMES.originalClass" value="SynchronousMachine"/>
                    <iidm:property name="CGMES.GeneratingUnit" value="_b850063d-eae7-4675-bc98-4642d3076783"/>
                    <iidm:property name="CGMES.RegulatingControl" value="_53e7a6c7-759b-4da2-898a-1c061d788670"/>
                    <iidm:minMaxReactiveLimits minQ="0.0" maxQ="200.0"/>
                </iidm:generator>
                <iidm:generator id="_2844585c-0d35-488d-a449-685bcd57afbf" name="NL-G2" energySource="OTHER" minP="130.0" maxP="250.0" ratedS="250.0" voltageRegulatorOn="true" targetP="140.0" targetV="16.01775" targetQ="77.743" node="5" p="-140.0" q="-20.66022">
                    <iidm:alias type="CGMES.Terminal1">_ae4b7cbe-349a-41c8-ace2-25ec26f14a64</iidm:alias>
                    <iidm:property name="CGMES.synchronousMachineType" value="generator"/>
                    <iidm:property name="CGMES.mode" value="http://iec.ch/tc57/cim100#regulatingcontrolmodekind.voltage"/>
                    <iidm:property name="CGMES.originalClass" value="SynchronousMachine"/>
                    <iidm:property name="CGMES.GeneratingUnit" value="_ca80ee09-3bed-4884-bc28-6dc89d067289"/>
                    <iidm:property name="CGMES.RegulatingControl" value="_1b3c88f9-c2ca-4250-bd37-ae0efa2fb022"/>
                    <iidm:minMaxReactiveLimits minQ="0.0" maxQ="200.0"/>
                </iidm:generator>
                <iidm:generator id="_9c3b8f97-7972-477d-9dc8-87365cc0ad0e" name="NL-G1" energySource="OTHER" minP="300.0" maxP="1000.0" ratedS="1100.0" voltageRegulatorOn="true" targetP="600.4927" targetV="16.0335" targetQ="386.9225" node="6" p="-567.4967" q="-184.1005">
                    <iidm:alias type="CGMES.Terminal1">_faab7959-f9bf-421b-bc3f-d364e0c1388b</iidm:alias>
                    <iidm:property name="CGMES.synchronousMachineType" value="generator"/>
                    <iidm:property name="CGMES.mode" value="http://iec.ch/tc57/cim100#regulatingcontrolmodekind.voltage"/>
                    <iidm:property name="CGMES.originalClass" value="SynchronousMachine"/>
                    <iidm:property name="CGMES.GeneratingUnit" value="_049438a6-780a-44fe-a788-ebe385d98e25"/>
                    <iidm:property name="CGMES.RegulatingControl" value="_04f338d3-3c0d-433f-a77b-e36dd256f0f0"/>
                    <iidm:minMaxReactiveLimits minQ="0.0" maxQ="600.0"/>
                </iidm:generator>
            </iidm:voltageLevel>
            <iidm:voltageLevel id="_b7998ae6-0cc6-4dfe-8fec-0b549b07b6c3" name="400.0" nominalV="400.0" lowVoltageLimit="360.0" highVoltageLimit="440.0" topologyKind="NODE_BREAKER">
                <iidm:property name="CGMES.lowVoltageLimit" value="360.0"/>
                <iidm:property name="CGMES.highVoltageLimit" value="440.0"/>
                <iidm:nodeBreakerTopology>
                    <iidm:switch id="_bac0aa59-1318-4032-b192-15a8d49283ee" name="CIRCB-1230992192" kind="BREAKER" retained="false" open="false" node1="0" node2="1">
                        <iidm:alias type="CGMES.Terminal2">_f937c4ac-b9fc-44a2-82a0-99cb34c89974</iidm:alias>
                        <iidm:alias type="CGMES.Terminal1">_30aa2972-aafb-4c38-912d-a14867d47cec</iidm:alias>
                        <iidm:property name="CGMES.originalClass" value="Breaker"/>
                        <iidm:property name="CGMES.normalOpen" value="false"/>
                    </iidm:switch>
                    <iidm:switch id="_b1fc12ae-ba9f-42ee-9558-3d432cc58fbf" name="CIRCB-1230992183" kind="BREAKER" retained="false" open="false" node1="2" node2="1">
                        <iidm:alias type="CGMES.Terminal2">_7a7fd92b-1aaf-49de-b609-1d640e63d49f</iidm:alias>
                        <iidm:alias type="CGMES.Terminal1">_790df530-60c7-40bc-be5f-f90e9c65bab4</iidm:alias>
                        <iidm:property name="CGMES.originalClass" value="Breaker"/>
                        <iidm:property name="CGMES.normalOpen" value="false"/>
                    </iidm:switch>
                    <iidm:switch id="_b5a26150-429d-4acb-b45b-055e42c79055" name="CIRCB-1230992174" kind="BREAKER" retained="false" open="false" node1="3" node2="1">
                        <iidm:alias type="CGMES.Terminal2">_85ceec9c-21a9-4ef2-b7b0-c2bb9552e799</iidm:alias>
                        <iidm:alias type="CGMES.Terminal1">_41b735f7-da62-4bd3-ac98-fbdec24baeac</iidm:alias>
                        <iidm:property name="CGMES.originalClass" value="Breaker"/>
                        <iidm:property name="CGMES.normalOpen" value="false"/>
                    </iidm:switch>
                    <iidm:internalConnection node1="1" node2="4"/>
                    <iidm:internalConnection node1="1" node2="5"/>
                    <iidm:internalConnection node1="1" node2="6"/>
                    <iidm:internalConnection node1="1" node2="7"/>
                    <iidm:bus v="409.444" angle="-21.19489" nodes="0,1,2,3,4,5,6,7"/>
                </iidm:nodeBreakerTopology>
                <iidm:load id="_69add5b4-70bd-4360-8a93-286256c0d38b" name="NL-Load_1" loadType="UNDEFINED" p0="90.0" q0="280.0" node="5" p="90.0" q="280.0">
                    <iidm:alias type="CGMES.Terminal1">_f461fd2d-1e41-4a3e-8213-7cc33c77a089</iidm:alias>
                    <iidm:property name="CGMES.pFixed" value="0.0"/>
                    <iidm:property name="CGMES.originalClass" value="ConformLoad"/>
                    <iidm:property name="CGMES.qFixed" value="0.0"/>
                </iidm:load>
                <iidm:load id="_25ab1b5b-6803-47e2-805a-ab7b2072e034" name="NL-Load_2" loadType="UNDEFINED" p0="10.0" q0="10.0" node="7" p="10.0" q="10.0">
                    <iidm:alias type="CGMES.Terminal1">_6dad1a97-6874-4206-a5a5-837e495325f8</iidm:alias>
                    <iidm:property name="CGMES.pFixed" value="0.0"/>
                    <iidm:property name="CGMES.originalClass" value="ConformLoad"/>
                    <iidm:property name="CGMES.qFixed" value="0.0"/>
                </iidm:load>
                <iidm:shuntCompensator id="_fbfed7e3-3dec-4829-a286-029e73535685" name="NL-S1" sectionCount="1" solvedSectionCount="1" voltageRegulatorOn="false" targetV="400.0" targetDeadband="0.5" node="4" p="0.0" q="-52.47276">
                    <iidm:alias type="CGMES.Terminal1">_a015f692-3fc5-4ec3-8d1d-977c7b499e7c</iidm:alias>
                    <iidm:property name="CGMES.RegulatingControl" value="_613dfeb3-0161-4cec-aaa9-ccddd885771b"/>
                    <iidm:property name="CGMES.normalSections" value="1"/>
                    <iidm:shuntLinearModel bPerSection="3.13E-4" gPerSection="0.0" maximumSectionCount="1"/>
                    <iidm:regulatingTerminal id="_69add5b4-70bd-4360-8a93-286256c0d38b"/>
                </iidm:shuntCompensator>
                <iidm:boundaryLine id="_dad02278-bd25-476f-8f58-dbe44be72586" name="NL-Line_2" p0="10.13586" q0="-74.35732" r="2.32" x="20.24" g="4.0E-5" b="2.51327E-5" node="0" pairingKey="Border_MA11" p="16.98407" q="-77.89275" selectedOperationalLimitsGroupIds="_13ee714f-6df4-4039-8519-5cf4e84ab20d">
                    <iidm:alias type="CGMES.Terminal_Boundary">_8f308117-8bbd-4798-b145-4e78f7d049e7</iidm:alias>
                    <iidm:alias type="CGMES.Terminal1">_c557146e-dfc4-4020-9738-d592b188338b</iidm:alias>
                    <iidm:property name="CGMES.Terminal" value="_c557146e-dfc4-4020-9738-d592b188338b"/>
                    <iidm:property name="lineEnergyIdentificationCodeEIC" value="10T-AT-SI-00001T"/>
                    <iidm:property name="CGMES.Terminal_Boundary" value="_8f308117-8bbd-4798-b145-4e78f7d049e7"/>
                    <iidm:property name="CGMES.TopologicalNode_Boundary" value="_1a4d0f02-6adb-4fa2-a828-b0366497ae5a"/>
                    <iidm:property name="CGMES.EquivalentInjectionTerminal" value="_f970233f-b573-49d9-9fc3-3a2a59ed3bbb"/>
                    <iidm:property name="CGMES.originalClass" value="ACLineSegment"/>
                    <iidm:property name="v" value="413.02983123807496"/>
                    <iidm:property name="CGMES.EquivalentInjection" value="_cab82e1c-1435-447b-bba0-74b592539eac"/>
                    <iidm:property name="CGMES.ConnectivityNode_Boundary" value="_b67cf870-cb6e-11e1-bcee-406c8f32ef58"/>
                    <iidm:property name="angle" value="-21.322841876102792"/>
                    <iidm:operationalLimitsGroup id="_13ee714f-6df4-4039-8519-5cf4e84ab20d">
                        <iidm:property name="CGMES.normalValue_CurrentLimit_patl" value="1371.0"/>
                        <iidm:property name="CGMES.OperationalLimitSetName" value="Limits at Port 1"/>
                        <iidm:property name="CGMES.OperationalLimitSetRdfID" value="_13ee714f-6df4-4039-8519-5cf4e84ab20d"/>
                        <iidm:property name="CGMES.OperationalLimit_CurrentLimit_tatl_10" value="_f56a3cac-7762-4e94-9597-debb58b1ef30"/>
                        <iidm:property name="CGMES.OperationalLimit_CurrentLimit_patl" value="_a9e4852d-4ebc-4118-80ee-85a4f326a646"/>
                        <iidm:property name="CGMES.normalValue_CurrentLimit_tatl_10" value="500.0"/>
                        <iidm:currentLimits permanentLimit="1371.0">
                            <iidm:temporaryLimit name="TATL" acceptableDuration="10" value="500.0"/>
                        </iidm:currentLimits>
                    </iidm:operationalLimitsGroup>
                </iidm:boundaryLine>
                <iidm:boundaryLine id="_7f43f508-2496-4b64-9146-0a40406cbe49" name="NL-Line_1" p0="15.32802" q0="-70.48819" r="1.02" x="12.0" g="3.0E-5" b="1.413717E-4" node="2" pairingKey="Border_AL11" p="20.42924" q="-93.82133" selectedOperationalLimitsGroupIds="_79a1fb3a-a66a-468c-8c78-c25714c73eba">
                    <iidm:alias type="CGMES.Terminal_Boundary">_6b1cd30c-19ba-44e1-9447-d01db6b1ef9d</iidm:alias>
                    <iidm:alias type="CGMES.Terminal1">_357e3e14-c38e-4a7e-9c95-b3dbe158f5f3</iidm:alias>
                    <iidm:property name="CGMES.Terminal" value="_357e3e14-c38e-4a7e-9c95-b3dbe158f5f3"/>
                    <iidm:property name="lineEnergyIdentificationCodeEIC" value="10T-ES-PT-10004U"/>
                    <iidm:property name="CGMES.Terminal_Boundary" value="_6b1cd30c-19ba-44e1-9447-d01db6b1ef9d"/>
                    <iidm:property name="CGMES.TopologicalNode_Boundary" value="_994d58d1-48c9-477d-8ba4-ec143e714ba1"/>
                    <iidm:property name="CGMES.EquivalentInjectionTerminal" value="_39d27c17-1e5b-4edc-a7ec-65a2d56542df"/>
                    <iidm:property name="CGMES.originalClass" value="ACLineSegment"/>
                    <iidm:property name="v" value="411.4612723511641"/>
                    <iidm:property name="CGMES.EquivalentInjection" value="_83bea592-913e-4473-8d17-969968ff83a2"/>
                    <iidm:property name="CGMES.ConnectivityNode_Boundary" value="_b675a570-cb6e-11e1-bcee-406c8f32ef58"/>
                    <iidm:property name="angle" value="-21.281897745063556"/>
                    <iidm:operationalLimitsGroup id="_79a1fb3a-a66a-468c-8c78-c25714c73eba">
                        <iidm:property name="CGMES.normalValue_CurrentLimit_patl" value="1233.9"/>
                        <iidm:property name="CGMES.OperationalLimitSetName" value="Limits at Port 1"/>
                        <iidm:property name="CGMES.OperationalLimitSetRdfID" value="_79a1fb3a-a66a-468c-8c78-c25714c73eba"/>
                        <iidm:property name="CGMES.OperationalLimit_CurrentLimit_tatl_10" value="_62d5df96-c2d5-4560-8622-452fff9e910e"/>
                        <iidm:property name="CGMES.OperationalLimit_CurrentLimit_patl" value="_2aee830f-ae57-4c6d-84fc-24b408139219"/>
                        <iidm:property name="CGMES.normalValue_CurrentLimit_tatl_10" value="500.0"/>
                        <iidm:currentLimits permanentLimit="1233.9">
                            <iidm:temporaryLimit name="TATL" acceptableDuration="10" value="500.0"/>
                        </iidm:currentLimits>
                    </iidm:operationalLimitsGroup>
                </iidm:boundaryLine>
                <iidm:boundaryLine id="_e8acf6b6-99cb-45ad-b8dc-16c7866a4ddc" name="NL-Line_5" p0="29.63637" q0="-133.1999" r="0.42" x="6.3" g="3.5E-5" b="6.48739E-5" node="3" pairingKey="Border_GY11" p="35.58428" q="-143.3762" selectedOperationalLimitsGroupIds="_a2c3d48f-d768-4e1e-8841-6e9c4913f11f">
                    <iidm:alias type="CGMES.Terminal1">_757d4f50-707b-47a0-891c-cbaefd649631</iidm:alias>
                    <iidm:alias type="CGMES.Terminal_Boundary">_ae588863-b154-451d-978a-7ab08ac50fb6</iidm:alias>
                    <iidm:property name="CGMES.Terminal" value="_757d4f50-707b-47a0-891c-cbaefd649631"/>
                    <iidm:property name="lineEnergyIdentificationCodeEIC" value="10T-AT-HU-00002U"/>
                    <iidm:property name="CGMES.Terminal_Boundary" value="_ae588863-b154-451d-978a-7ab08ac50fb6"/>
                    <iidm:property name="CGMES.TopologicalNode_Boundary" value="_eff86931-991c-4f6f-b5d6-75dad40e0a12"/>
                    <iidm:property name="CGMES.EquivalentInjectionTerminal" value="_f48d48c7-e9f6-460c-898f-cc68a96efdeb"/>
                    <iidm:property name="CGMES.originalClass" value="ACLineSegment"/>
                    <iidm:property name="v" value="411.4528264979437"/>
                    <iidm:property name="CGMES.EquivalentInjection" value="_b0442899-8dbe-48c1-a1fa-adb2a5929273"/>
                    <iidm:property name="CGMES.ConnectivityNode_Boundary" value="_b67c8340-cb6e-11e1-bcee-406c8f32ef58"/>
                    <iidm:property name="angle" value="-21.277416617560462"/>
                    <iidm:operationalLimitsGroup id="_a2c3d48f-d768-4e1e-8841-6e9c4913f11f">
                        <iidm:property name="CGMES.normalValue_CurrentLimit_patl" value="1876.0"/>
                        <iidm:property name="CGMES.OperationalLimitSetName" value="Limits at Port 1"/>
                        <iidm:property name="CGMES.OperationalLimitSetRdfID" value="_a2c3d48f-d768-4e1e-8841-6e9c4913f11f"/>
                        <iidm:property name="CGMES.OperationalLimit_CurrentLimit_tatl_10" value="_575adcb9-0519-41de-b16b-d2c9e04ace4b"/>
                        <iidm:property name="CGMES.OperationalLimit_CurrentLimit_patl" value="_9c45fa1d-faa0-49ca-952d-e2280e66e986"/>
                        <iidm:property name="CGMES.normalValue_CurrentLimit_tatl_10" value="500.0"/>
                        <iidm:currentLimits permanentLimit="1876.0">
                            <iidm:temporaryLimit name="TATL" acceptableDuration="10" value="500.0"/>
                        </iidm:currentLimits>
                    </iidm:operationalLimitsGroup>
                </iidm:boundaryLine>
            </iidm:voltageLevel>
            <iidm:voltageLevel id="_d77b61ef-61aa-4b22-95f6-b56ca080788d" name="220.0" nominalV="220.0" lowVoltageLimit="198.0" highVoltageLimit="242.0" topologyKind="NODE_BREAKER">
                <iidm:property name="CGMES.lowVoltageLimit" value="198.0"/>
                <iidm:property name="CGMES.highVoltageLimit" value="242.0"/>
                <iidm:nodeBreakerTopology>
                    <iidm:busbarSection id="_143aa0b1-2cd4-4e58-98d4-b0438bd5a39a" name="NL-Busbar_2" node="3">
                        <iidm:alias type="CGMES.Terminal1">_50f00b94-fe0f-48fd-887e-f0d4d59eee87</iidm:alias>
                    </iidm:busbarSection>
                    <iidm:busbarSection id="_12733133-1f34-44f3-a020-f5b33cede919" name="N1230822396" node="4">
                        <iidm:alias type="CGMES.Terminal1">_ecea10ff-e006-436b-a86a-beac4c2a30c1</iidm:alias>
                    </iidm:busbarSection>
                    <iidm:switch id="_5f5d40ae-d52d-4631-9285-b3ceefff784c" name="B1" kind="BREAKER" retained="true" open="false" node1="0" node2="3">
                        <iidm:alias type="CGMES.Terminal1">_8121d4c3-9cb2-47db-b40a-99678602bb2a</iidm:alias>
                        <iidm:alias type="CGMES.Terminal2">_5f40c3f7-9540-4e1b-aa97-6553d5524877</iidm:alias>
                        <iidm:property name="CGMES.originalClass" value="Breaker"/>
                        <iidm:property name="CGMES.normalOpen" value="false"/>
                    </iidm:switch>
                    <iidm:switch id="_21ec578c-689f-4130-80de-fd0fb5a30ed8" name="CIRCB-1230992249" kind="BREAKER" retained="false" open="false" node1="5" node2="0">
                        <iidm:alias type="CGMES.Terminal2">_3c377e5e-65cc-45f1-ba12-e20034df7cb3</iidm:alias>
                        <iidm:alias type="CGMES.Terminal1">_14f212ae-bcd8-46ae-9366-11dec9602a01</iidm:alias>
                        <iidm:property name="CGMES.originalClass" value="Breaker"/>
                        <iidm:property name="CGMES.normalOpen" value="false"/>
                    </iidm:switch>
                    <iidm:switch id="_88a19e5c-6885-4e6e-8d30-c5442444b309" name="CIRCB-1230992240" kind="BREAKER" retained="false" open="false" node1="2" node2="0">
                        <iidm:alias type="CGMES.Terminal2">_abc40269-5f9a-4b13-a5a5-8e3b3929eff5</iidm:alias>
                        <iidm:alias type="CGMES.Terminal1">_c9dbf281-e788-4084-b268-3b5a9473ad72</iidm:alias>
                        <iidm:property name="CGMES.originalClass" value="Breaker"/>
                        <iidm:property name="CGMES.normalOpen" value="false"/>
                    </iidm:switch>
                    <iidm:switch id="_4853e915-48e5-4527-a4db-cce11ab18f73" name="NL_BREAKER_3" kind="BREAKER" retained="false" open="false" node1="0" node2="4">
                        <iidm:alias type="CGMES.Terminal1">_74039a16-da9d-46dd-a4f1-dd65fbb09ec4</iidm:alias>
                        <iidm:alias type="CGMES.Terminal2">_e12338f8-6e9e-4d06-a29a-e12bdd7bd4d7</iidm:alias>
                        <iidm:property name="CGMES.originalClass" value="Breaker"/>
                        <iidm:property name="CGMES.normalOpen" value="false"/>
                    </iidm:switch>
                    <iidm:switch id="_3da8f227-5c16-47e1-a17f-4cd92269d301" name="NL_BREAKER_1" kind="BREAKER" retained="false" open="false" node1="3" node2="1">
                        <iidm:alias type="CGMES.Terminal2">_eedefa27-de13-4e6f-91a3-42aa86b539d6</iidm:alias>
                        <iidm:alias type="CGMES.Terminal1">_9fc1ca1a-bb62-4982-9358-fa9b4ac5564d</iidm:alias>
                        <iidm:property name="CGMES.originalClass" value="Breaker"/>
                        <iidm:property name="CGMES.normalOpen" value="false"/>
                    </iidm:switch>
                    <iidm:internalConnection node1="3" node2="6"/>
                    <iidm:internalConnection node1="3" node2="7"/>
                    <iidm:internalConnection node1="4" node2="8"/>
                    <iidm:bus v="222.6928" angle="-3.4698" nodes="0,1,2,3,4,5,6,7,8"/>
                </iidm:nodeBreakerTopology>
                <iidm:load id="_b1e03a8f-6a11-4454-af58-4a4a680e857f" name="NL-Load_3" loadType="UNDEFINED" p0="486.0" q0="230.0" node="6" p="487.1842" q="230.8406">
                    <iidm:alias type="CGMES.Terminal1">_fab54e9c-b12e-4e47-a9f2-fec4ef96c0c0</iidm:alias>
                    <iidm:property name="CGMES.pFixed" value="0.0"/>
                    <iidm:property name="CGMES.originalClass" value="ConformLoad"/>
                    <iidm:property name="CGMES.qFixed" value="0.0"/>
                    <iidm:zipModel c0p="0.8" c1p="0.2" c2p="0.0" c0q="0.7" c1q="0.3" c2q="0.0"/>
                </iidm:load>
                <iidm:boundaryLine id="_8fdc7abd-3746-481a-a65e-3df56acd8b13" name="NL-Line_4" p0="81.13571" q0="-2.558644" r="2.2" x="66.0" g="2.42E-5" b="8.98495E-5" node="2" pairingKey="Border_ST23" p="82.63113" q="1.980564" selectedOperationalLimitsGroupIds="_37cc4210-71c0-4328-a86b-df0f65e76ef4">
                    <iidm:alias type="CGMES.Terminal1">_653bc4b8-518b-4adc-9d68-012fb641fb1d</iidm:alias>
                    <iidm:alias type="CGMES.Terminal_Boundary">_57979d14-d1d8-4311-ae53-aa8890423885</iidm:alias>
                    <iidm:property name="CGMES.Terminal" value="_653bc4b8-518b-4adc-9d68-012fb641fb1d"/>
                    <iidm:property name="lineEnergyIdentificationCodeEIC" value="10T-AT-DE-00016Z"/>
                    <iidm:property name="CGMES.Terminal_Boundary" value="_57979d14-d1d8-4311-ae53-aa8890423885"/>
                    <iidm:property name="CGMES.TopologicalNode_Boundary" value="_ebd2d2fd-3cfc-466d-a542-104ce0e8fd4d"/>
                    <iidm:property name="CGMES.EquivalentInjectionTerminal" value="_24dd035c-0a8c-4351-aeb2-08d6622b42ae"/>
                    <iidm:property name="CGMES.originalClass" value="ACLineSegment"/>
                    <iidm:property name="v" value="221.32829364334188"/>
                    <iidm:property name="CGMES.EquivalentInjection" value="_12baa3f3-23b1-44e0-956f-d331e1527f37"/>
                    <iidm:property name="CGMES.ConnectivityNode_Boundary" value="_b66f15c0-cb6e-11e1-bcee-406c8f32ef58"/>
                    <iidm:property name="angle" value="-9.713639183569223"/>
                    <iidm:operationalLimitsGroup id="_37cc4210-71c0-4328-a86b-df0f65e76ef4">
                        <iidm:property name="CGMES.normalValue_CurrentLimit_patl" value="1574.0"/>
                        <iidm:property name="CGMES.OperationalLimitSetName" value="Limits at Port 1"/>
                        <iidm:property name="CGMES.OperationalLimitSetRdfID" value="_37cc4210-71c0-4328-a86b-df0f65e76ef4"/>
                        <iidm:property name="CGMES.OperationalLimit_CurrentLimit_tatl_10" value="_5647a810-f033-45bb-89fe-001e1726e637"/>
                        <iidm:property name="CGMES.OperationalLimit_CurrentLimit_patl" value="_1b428776-d0f6-4b2e-bfd5-78df6bb6bdaf"/>
                        <iidm:property name="CGMES.normalValue_CurrentLimit_tatl_10" value="500.0"/>
                        <iidm:currentLimits permanentLimit="1574.0">
                            <iidm:temporaryLimit name="TATL" acceptableDuration="10" value="500.0"/>
                        </iidm:currentLimits>
                    </iidm:operationalLimitsGroup>
                </iidm:boundaryLine>
                <iidm:boundaryLine id="_a279a3dc-550b-426c-af3a-61b7be508dcc" name="NL-Line_3" p0="101.0953" q0="-12.36284" r="5.06" x="69.0" g="2.3E-5" b="2.02319E-5" node="5" pairingKey="Border_ST24" p="103.3101" q="1.329413" selectedOperationalLimitsGroupIds="_9a03e8ee-e832-43c8-b38e-0d43f8ef7355">
                    <iidm:alias type="CGMES.Terminal1">_5dfee914-a4fd-4bde-a5b4-c4caa6378d10</iidm:alias>
                    <iidm:alias type="CGMES.Terminal_Boundary">_6aecb9ba-5835-4b70-89bc-96d687e45779</iidm:alias>
                    <iidm:property name="CGMES.Terminal" value="_5dfee914-a4fd-4bde-a5b4-c4caa6378d10"/>
                    <iidm:property name="lineEnergyIdentificationCodeEIC" value="10T-AT-DE-00017X"/>
                    <iidm:property name="CGMES.Terminal_Boundary" value="_6aecb9ba-5835-4b70-89bc-96d687e45779"/>
                    <iidm:property name="CGMES.TopologicalNode_Boundary" value="_88f1e099-9930-4ad2-a477-f301e35ca9a4"/>
                    <iidm:property name="CGMES.EquivalentInjectionTerminal" value="_26e50b4b-9a19-420d-98ce-bc4f11971cd7"/>
                    <iidm:property name="CGMES.originalClass" value="ACLineSegment"/>
                    <iidm:property name="v" value="221.96230129410378"/>
                    <iidm:property name="CGMES.EquivalentInjection" value="_820d95d7-26d4-4311-8b1f-026f8605b86d"/>
                    <iidm:property name="CGMES.ConnectivityNode_Boundary" value="_b6978550-cb6e-11e1-bcee-406c8f32ef58"/>
                    <iidm:property name="angle" value="-11.65582665075885"/>
                    <iidm:operationalLimitsGroup id="_9a03e8ee-e832-43c8-b38e-0d43f8ef7355">
                        <iidm:property name="CGMES.normalValue_CurrentLimit_patl" value="2000.0"/>
                        <iidm:property name="CGMES.OperationalLimitSetName" value="Limits at Port 1"/>
                        <iidm:property name="CGMES.OperationalLimitSetRdfID" value="_9a03e8ee-e832-43c8-b38e-0d43f8ef7355"/>
                        <iidm:property name="CGMES.OperationalLimit_CurrentLimit_tatl_10" value="_f7bf4d26-c54f-425c-84b6-cfbea09abc7e"/>
                        <iidm:property name="CGMES.OperationalLimit_CurrentLimit_patl" value="_f46552fe-0ce9-44dd-8220-5d6764d37a53"/>
                        <iidm:property name="CGMES.normalValue_CurrentLimit_tatl_10" value="500.0"/>
                        <iidm:currentLimits permanentLimit="2000.0">
                            <iidm:temporaryLimit name="TATL" acceptableDuration="10" value="500.0"/>
                        </iidm:currentLimits>
                    </iidm:operationalLimitsGroup>
                </iidm:boundaryLine>
            </iidm:voltageLevel>
            <iidm:twoWindingsTransformer id="_80016742-31b3-432a-b00a-300667a1e572" name="NL_TR2_3" r="3.3468961518595046E-4" x="0.027560466411415293" g="0.003547489523809523" b="-0.027710349931972786" ratedU1="220.0" ratedU2="15.75" ratedS="1260.0" voltageLevelId1="_d77b61ef-61aa-4b22-95f6-b56ca080788d" node1="1" voltageLevelId2="_8d8a82ba-b5b0-4e94-861a-192af055f2b8" node2="1" p1="-559.2375" q1="-138.2136" p2="560.5737" q2="184.1005" selectedOperationalLimitsGroupIds1="_fd472104-d68c-4536-ba4a-5fd9349c0a65" selectedOperationalLimitsGroupIds2="_cf3e5341-6736-4b34-b4da-e4af2073765b">
                <iidm:alias type="CGMES.TransformerEnd1">_f3600241-63dc-485b-aefb-4ec24028f8b3</iidm:alias>
                <iidm:alias type="CGMES.Terminal2">_4f1c405f-07c9-4fb0-b64e-551896a29aa8</iidm:alias>
                <iidm:alias type="CGMES.Terminal1">_bd61b1f9-474d-424e-9709-42f75337c477</iidm:alias>
                <iidm:alias type="CGMES.RatioTapChanger1">_44b4277a-0f4b-43a8-ad93-6f7d6ef02061</iidm:alias>
                <iidm:alias type="CGMES.TransformerEnd2">_4df90339-ae02-4da1-8e1e-69ab068df065</iidm:alias>
                <iidm:ratioTapChanger regulating="false" lowTapPosition="-15" tapPosition="5" solvedTapPosition="5" loadTapChangingCapabilities="true">
                    <iidm:step r="0.065302" x="4.916391" g="0.0" b="0.0" rho="1.0869565217391304"/>
                    <iidm:step r="0.065302" x="4.954807" g="0.0" b="0.0" rho="1.081081081081081"/>
                    <iidm:step r="0.065302" x="4.993223" g="0.0" b="0.0" rho="1.075268817204301"/>
                    <iidm:step r="0.065302" x="5.03164" g="0.0" b="0.0" rho="1.0638297872340425"/>
                    <iidm:step r="0.065302" x="5.03164" g="0.0" b="0.0" rho="1.0582010582010584"/>
                    <iidm:step r="0.065302" x="5.070055" g="0.0" b="0.0" rho="1.0526315789473684"/>
                    <iidm:step r="0.065302" x="5.070055" g="0.0" b="0.0" rho="1.0471204188481675"/>
                    <iidm:step r="0.065302" x="5.108471" g="0.0" b="0.0" rho="1.0416666666666667"/>
                    <iidm:step r="0.065302" x="5.146887" g="0.0" b="0.0" rho="1.0362694300518136"/>
                    <iidm:step r="0.065302" x="5.185303" g="0.0" b="0.0" rho="1.0309278350515465"/>
                    <iidm:step r="0.065302" x="5.185303" g="0.0" b="0.0" rho="1.0256410256410258"/>
                    <iidm:step r="0.065302" x="5.223718" g="0.0" b="0.0" rho="1.0204081632653061"/>
                    <iidm:step r="0.065302" x="5.262134" g="0.0" b="0.0" rho="1.015228426395939"/>
                    <iidm:step r="0.065302" x="5.30055" g="0.0" b="0.0" rho="1.0101010101010102"/>
                    <iidm:step r="0.065302" x="5.338965" g="0.0" b="0.0" rho="1.0050251256281406"/>
                    <iidm:step r="0.065302" x="5.377381" g="0.0" b="0.0" rho="1.0"/>
                    <iidm:step r="0.065302" x="5.415796" g="0.0" b="0.0" rho="0.9950248756218907"/>
                    <iidm:step r="0.065302" x="5.454212" g="0.0" b="0.0" rho="0.9900990099009901"/>
                    <iidm:step r="0.065302" x="5.454212" g="0.0" b="0.0" rho="0.984930562395351"/>
                    <iidm:step r="0.065302" x="5.492627" g="0.0" b="0.0" rho="0.9803921568627451"/>
                    <iidm:step r="0.065302" x="5.531043" g="0.0" b="0.0" rho="0.9756097560975611"/>
                    <iidm:step r="0.065302" x="5.569458" g="0.0" b="0.0" rho="0.9699321047526674"/>
                    <iidm:step r="0.065302" x="5.607873" g="0.0" b="0.0" rho="0.9643201542912248"/>
                    <iidm:step r="0.065302" x="5.646288" g="0.0" b="0.0" rho="0.9587727708533078"/>
                    <iidm:step r="0.065302" x="5.646288" g="0.0" b="0.0" rho="0.9523809523809523"/>
                    <iidm:step r="0.065302" x="5.684704" g="0.0" b="0.0" rho="0.9478672985781991"/>
                    <iidm:step r="0.065302" x="5.684704" g="0.0" b="0.0" rho="0.9433962264150942"/>
                    <iidm:step r="0.065302" x="5.723119" g="0.0" b="0.0" rho="0.9389671361502347"/>
                    <iidm:step r="0.065302" x="5.723119" g="0.0" b="0.0" rho="0.9328358208955223"/>
                    <iidm:step r="0.065302" x="5.761534" g="0.0" b="0.0" rho="0.9259259259259258"/>
                    <iidm:step r="0.065302" x="5.799949" g="0.0" b="0.0" rho="0.9216589861751152"/>
                </iidm:ratioTapChanger>
                <iidm:operationalLimitsGroup1 id="_fd472104-d68c-4536-ba4a-5fd9349c0a65">
                    <iidm:property name="CGMES.normalValue_CurrentLimit_patl" value="3306.644"/>
                    <iidm:property name="CGMES.OperationalLimitSetName" value="Limits at Port 1"/>
                    <iidm:property name="CGMES.OperationalLimitSetRdfID" value="_fd472104-d68c-4536-ba4a-5fd9349c0a65"/>
                    <iidm:property name="CGMES.OperationalLimit_CurrentLimit_patl" value="_a2a12ff5-6fa1-4961-83e5-a17f4490d4f2"/>
                    <iidm:currentLimits permanentLimit="3306.644"/>
                </iidm:operationalLimitsGroup1>
                <iidm:operationalLimitsGroup2 id="_cf3e5341-6736-4b34-b4da-e4af2073765b">
                    <iidm:property name="CGMES.normalValue_CurrentLimit_patl" value="46188.04"/>
                    <iidm:property name="CGMES.OperationalLimitSetName" value="Limits at Port 2"/>
                    <iidm:property name="CGMES.OperationalLimitSetRdfID" value="_cf3e5341-6736-4b34-b4da-e4af2073765b"/>
                    <iidm:property name="CGMES.OperationalLimit_CurrentLimit_patl" value="_08519e9c-d0d3-46a7-8e42-b01d291b0dcd"/>
                    <iidm:currentLimits permanentLimit="46188.04"/>
                </iidm:operationalLimitsGroup2>
            </iidm:twoWindingsTransformer>
            <iidm:twoWindingsTransformer id="_2184f365-8cd5-4b5d-8a28-9d68603bb6a4" name="NL_TR2_2" r="3.543757321797521E-4" x="0.0275602203990186" g="0.003547489523809523" b="-0.027710349931972786" ratedU1="220.0" ratedU2="15.75" ratedS="1260.0" voltageLevelId1="_d77b61ef-61aa-4b22-95f6-b56ca080788d" node1="8" voltageLevelId2="_8d8a82ba-b5b0-4e94-861a-192af055f2b8" node2="3" p1="-287.3137" q1="-25.16025" p2="288.3278" q2="41.32045" selectedOperationalLimitsGroupIds1="_e7c1b1c7-aaeb-470a-9cb5-93a3ec269179" selectedOperationalLimitsGroupIds2="_261d13c4-1527-42a5-ad0d-a3b817971166">
                <iidm:alias type="CGMES.PhaseTapChanger1">_ee649b97-d2ec-47e1-976f-0f4d9f50fa11</iidm:alias>
                <iidm:alias type="CGMES.Terminal1">_1128e664-0653-448a-9068-e37f1a097c05</iidm:alias>
                <iidm:alias type="CGMES.TransformerEnd2">_41ca9e70-1cb4-4971-b8e6-a97a15580b89</iidm:alias>
                <iidm:alias type="CGMES.Terminal2">_da232169-1c36-495a-8af6-a0d7d2b39f52</iidm:alias>
                <iidm:alias type="CGMES.TransformerEnd1">_0dbed103-fc51-4df4-a6fa-0dee4c57f3a3</iidm:alias>
                <iidm:phaseTapChanger regulating="false" lowTapPosition="0" tapPosition="17" solvedTapPosition="17" loadTapChangingCapabilities="true" regulationMode="CURRENT_LIMITER">
                    <iidm:step r="0.0" x="0.0" g="0.0" b="0.0" rho="1.0869392724854583" alpha="0.08564533"/>
                    <iidm:step r="0.0" x="0.0" g="0.0" b="0.0" rho="1.0810654202414798" alpha="0.07985887"/>
                    <iidm:step r="0.0" x="0.0" g="0.0" b="0.0" rho="1.075254711712384" alpha="0.0741346"/>
                    <iidm:step r="0.0" x="0.0" g="0.0" b="0.0" rho="1.069504990310285" alpha="0.06847034"/>
                    <iidm:step r="0.0" x="0.0" g="0.0" b="0.0" rho="1.0638175646492571" alpha="0.06286751"/>
                    <iidm:step r="0.0" x="0.0" g="0.0" b="0.0" rho="1.0581903083312594" alpha="0.05732394"/>
                    <iidm:step r="0.0" x="0.0" g="0.0" b="0.0" rho="1.052622160749088" alpha="0.05183871"/>
                    <iidm:step r="0.0" x="0.0" g="0.0" b="0.0" rho="1.0471123050983688" alpha="0.04641083"/>
                    <iidm:step r="0.0" x="0.0" g="0.0" b="0.0" rho="1.0416598307740272" alpha="0.04103953"/>
                    <iidm:step r="0.0" x="0.0" g="0.0" b="0.0" rho="1.0362627721977329" alpha="0.0357228"/>
                    <iidm:step r="0.0" x="0.0" g="0.0" b="0.0" rho="1.0309224147378195" alpha="0.03046193"/>
                    <iidm:step r="0.0" x="0.0" g="0.0" b="0.0" rho="1.0256367127071568" alpha="0.02525494"/>
                    <iidm:step r="0.0" x="0.0" g="0.0" b="0.0" rho="1.0204050395764095" alpha="0.02010112"/>
                    <iidm:step r="0.0" x="0.0" g="0.0" b="0.0" rho="1.015226365022609" alpha="0.01499961"/>
                    <iidm:step r="0.0" x="0.0" g="0.0" b="0.0" rho="1.0100989694970313" alpha="0.009948592"/>
                    <iidm:step r="0.0" x="0.0" g="0.0" b="0.0" rho="1.0050241155536528" alpha="0.004949279"/>
                    <iidm:step r="0.0" x="0.0" g="0.0" b="0.0" rho="1.0" alpha="-0.0"/>
                    <iidm:step r="0.0" x="0.0" g="0.0" b="0.0" rho="0.9950258656973788" alpha="-0.004900108"/>
                    <iidm:step r="0.0" x="0.0" g="0.0" b="0.0" rho="0.9901009704969713" alpha="-0.0097516"/>
                    <iidm:step r="0.0" x="0.0" g="0.0" b="0.0" rho="0.9852236162041698" alpha="-0.01455634"/>
                    <iidm:step r="0.0" x="0.0" g="0.0" b="0.0" rho="0.9803950403775697" alpha="-0.01931307"/>
                    <iidm:step r="0.0" x="0.0" g="0.0" b="0.0" rho="0.9756135633700034" alpha="-0.02402342"/>
                    <iidm:step r="0.0" x="0.0" g="0.0" b="0.0" rho="0.9708775568060459" alpha="-0.02868893"/>
                    <iidm:step r="0.0" x="0.0" g="0.0" b="0.0" rho="0.9661882424552775" alpha="-0.03330838"/>
                    <iidm:step r="0.0" x="0.0" g="0.0" b="0.0" rho="0.9615430843417516" alpha="-0.03788355"/>
                    <iidm:step r="0.0" x="0.0" g="0.0" b="0.0" rho="0.9569432934543165" alpha="-0.04241494"/>
                    <iidm:step r="0.0" x="0.0" g="0.0" b="0.0" rho="0.9523863945889214" alpha="-0.04690404"/>
                    <iidm:step r="0.0" x="0.0" g="0.0" b="0.0" rho="0.9478735877868383" alpha="-0.05134965"/>
                    <iidm:step r="0.0" x="0.0" g="0.0" b="0.0" rho="0.9434033464403504" alpha="-0.05575343"/>
                    <iidm:step r="0.0" x="0.0" g="0.0" b="0.0" rho="0.9389733078057789" alpha="-0.06011671"/>
                    <iidm:step r="0.0" x="0.0" g="0.0" b="0.0" rho="0.9345864268144061" alpha="-0.06443839"/>
                    <iidm:step r="0.0" x="0.0" g="0.0" b="0.0" rho="0.9302403461982472" alpha="-0.06871978"/>
                    <iidm:step r="0.0" x="0.0" g="0.0" b="0.0" rho="0.9259336420396097" alpha="-0.07296245"/>
                    <iidm:step r="0.0" x="0.0" g="0.0" b="0.0" rho="0.9216666313361125" alpha="-0.07716522"/>
                </iidm:phaseTapChanger>
                <iidm:operationalLimitsGroup1 id="_e7c1b1c7-aaeb-470a-9cb5-93a3ec269179">
                    <iidm:property name="CGMES.normalValue_CurrentLimit_patl" value="3306.644"/>
                    <iidm:property name="CGMES.OperationalLimitSetName" value="Limits at Port 1"/>
                    <iidm:property name="CGMES.OperationalLimitSetRdfID" value="_e7c1b1c7-aaeb-470a-9cb5-93a3ec269179"/>
                    <iidm:property name="CGMES.OperationalLimit_CurrentLimit_patl" value="_3f0506de-bc31-4c40-b017-a4e47057539d"/>
                    <iidm:currentLimits permanentLimit="3306.644"/>
                </iidm:operationalLimitsGroup1>
                <iidm:operationalLimitsGroup2 id="_261d13c4-1527-42a5-ad0d-a3b817971166">
                    <iidm:property name="CGMES.normalValue_CurrentLimit_patl" value="46188.04"/>
                    <iidm:property name="CGMES.OperationalLimitSetName" value="Limits at Port 2"/>
                    <iidm:property name="CGMES.OperationalLimitSetRdfID" value="_261d13c4-1527-42a5-ad0d-a3b817971166"/>
                    <iidm:property name="CGMES.OperationalLimit_CurrentLimit_patl" value="_7b56ef89-c315-46fe-ab57-35a9615337e0"/>
                    <iidm:currentLimits permanentLimit="46188.04"/>
                </iidm:operationalLimitsGroup2>
            </iidm:twoWindingsTransformer>
            <iidm:twoWindingsTransformer id="_e8a7eaec-51d6-4571-b3d9-c36d52073c33" name="NL-TR2_1" r="0.4083750000000001" x="8.4601506" g="1.8595041322314046E-6" b="-1.4692561983471074E-5" ratedU1="400.0" ratedU2="220.0" ratedS="320.0" voltageLevelId1="_b7998ae6-0cc6-4dfe-8fec-0b549b07b6c3" node1="6" voltageLevelId2="_d77b61ef-61aa-4b22-95f6-b56ca080788d" node2="7" p1="-172.9987" q1="77.56304" p2="173.3811" q2="-70.77673" selectedOperationalLimitsGroupIds1="_83f719ad-2083-44ea-9ebc-9f456c114bdb" selectedOperationalLimitsGroupIds2="_d47a27cc-9fad-40f2-a08c-37e545c268df">
                <iidm:alias type="CGMES.Terminal1">_e3e0c496-5837-4f0f-a596-cc421940f73f</iidm:alias>
                <iidm:alias type="CGMES.Terminal2">_baa7aef1-afcd-4981-97c0-ccec7b5ad4e0</iidm:alias>
                <iidm:alias type="CGMES.PhaseTapChanger1">_341327c4-9224-40bf-bc33-7a3bb0bae680</iidm:alias>
                <iidm:alias type="CGMES.TransformerEnd2">_0dec3883-a2b6-4353-83cc-d4dd5df513a6</iidm:alias>
                <iidm:alias type="CGMES.TransformerEnd1">_c614f321-2c88-4fa3-b98a-8ec3cde73db4</iidm:alias>
                <iidm:phaseTapChanger regulating="false" lowTapPosition="-20" tapPosition="8" solvedTapPosition="8" loadTapChangingCapabilities="true" regulationMode="CURRENT_LIMITER">
                    <iidm:step r="0.0" x="6.249982122067658" g="0.0" b="0.0" rho="1.0" alpha="-40.0"/>
                    <iidm:step r="0.0" x="5.663165336578756" g="0.0" b="0.0" rho="1.0" alpha="-38.0"/>
                    <iidm:step r="0.0" x="5.101996236756837" g="0.0" b="0.0" rho="1.0" alpha="-36.0"/>
                    <iidm:step r="0.0" x="4.5671585207085705" g="0.0" b="0.0" rho="1.0" alpha="-34.0"/>
                    <iidm:step r="0.0" x="4.0593038058055155" g="0.0" b="0.0" rho="1.0" alpha="-32.0"/>
                    <iidm:step r="0.0" x="3.579050834788764" g="0.0" b="0.0" rho="1.0" alpha="-30.0"/>
                    <iidm:step r="0.0" x="3.1269847219261995" g="0.0" b="0.0" rho="1.0" alpha="-28.0"/>
                    <iidm:step r="0.0" x="2.703656240140899" g="0.0" b="0.0" rho="1.0" alpha="-26.0"/>
                    <iidm:step r="0.0" x="2.3095811499791554" g="0.0" b="0.0" rho="1.0" alpha="-24.0"/>
                    <iidm:step r="0.0" x="1.9452395712357367" g="0.0" b="0.0" rho="1.0" alpha="-22.0"/>
                    <iidm:step r="0.0" x="1.6110753980018124" g="0.0" b="0.0" rho="1.0" alpha="-20.0"/>
                    <iidm:step r="0.0" x="1.307495757848421" g="0.0" b="0.0" rho="1.0" alpha="-18.0"/>
                    <iidm:step r="0.0" x="1.0348705158042308" g="0.0" b="0.0" rho="1.0" alpha="-16.0"/>
                    <iidm:step r="0.0" x="0.7935318237319766" g="0.0" b="0.0" rho="1.0" alpha="-14.0"/>
                    <iidm:step r="0.0" x="0.5837737156525631" g="0.0" b="0.0" rho="1.0" alpha="-12.0"/>
                    <iidm:step r="0.0" x="0.4058517495099393" g="0.0" b="0.0" rho="1.0" alpha="-10.0"/>
                    <iidm:step r="0.0" x="0.259982695813068" g="0.0" b="0.0" rho="1.0" alpha="-8.0"/>
                    <iidm:step r="0.0" x="0.14634427353448118" g="0.0" b="0.0" rho="1.0" alpha="-6.0"/>
                    <iidm:step r="0.0" x="0.0650749335870492" g="0.0" b="0.0" rho="1.0" alpha="-4.0"/>
                    <iidm:step r="0.0" x="0.016273690142932947" g="0.0" b="0.0" rho="1.0" alpha="-2.0"/>
                    <iidm:step r="0.0" x="0.0" g="0.0" b="0.0" rho="1.0" alpha="0.0"/>
                    <iidm:step r="0.0" x="0.016273690142932947" g="0.0" b="0.0" rho="1.0" alpha="2.0"/>
                    <iidm:step r="0.0" x="0.0650749335870492" g="0.0" b="0.0" rho="1.0" alpha="4.0"/>
                    <iidm:step r="0.0" x="0.14634427353448118" g="0.0" b="0.0" rho="1.0" alpha="6.0"/>
                    <iidm:step r="0.0" x="0.259982695813068" g="0.0" b="0.0" rho="1.0" alpha="8.0"/>
                    <iidm:step r="0.0" x="0.4058517495099393" g="0.0" b="0.0" rho="1.0" alpha="10.0"/>
                    <iidm:step r="0.0" x="0.5837737156525631" g="0.0" b="0.0" rho="1.0" alpha="12.0"/>
                    <iidm:step r="0.0" x="0.7935318237319766" g="0.0" b="0.0" rho="1.0" alpha="14.0"/>
                    <iidm:step r="0.0" x="1.0348705158042308" g="0.0" b="0.0" rho="1.0" alpha="16.0"/>
                    <iidm:step r="0.0" x="1.307495757848421" g="0.0" b="0.0" rho="1.0" alpha="18.0"/>
                    <iidm:step r="0.0" x="1.6110753980018124" g="0.0" b="0.0" rho="1.0" alpha="20.0"/>
                    <iidm:step r="0.0" x="1.9452395712357367" g="0.0" b="0.0" rho="1.0" alpha="22.0"/>
                    <iidm:step r="0.0" x="2.3095811499791554" g="0.0" b="0.0" rho="1.0" alpha="24.0"/>
                    <iidm:step r="0.0" x="2.703656240140899" g="0.0" b="0.0" rho="1.0" alpha="26.0"/>
                    <iidm:step r="0.0" x="3.1269847219261995" g="0.0" b="0.0" rho="1.0" alpha="28.0"/>
                    <iidm:step r="0.0" x="3.579050834788764" g="0.0" b="0.0" rho="1.0" alpha="30.0"/>
                    <iidm:step r="0.0" x="4.0593038058055155" g="0.0" b="0.0" rho="1.0" alpha="32.0"/>
                    <iidm:step r="0.0" x="4.5671585207085705" g="0.0" b="0.0" rho="1.0" alpha="34.0"/>
                    <iidm:step r="0.0" x="5.101996236756837" g="0.0" b="0.0" rho="1.0" alpha="36.0"/>
                    <iidm:step r="0.0" x="5.663165336578756" g="0.0" b="0.0" rho="1.0" alpha="38.0"/>
                    <iidm:step r="0.0" x="6.249982122067658" g="0.0" b="0.0" rho="1.0" alpha="40.0"/>
                </iidm:phaseTapChanger>
                <iidm:operationalLimitsGroup1 id="_83f719ad-2083-44ea-9ebc-9f456c114bdb">
                    <iidm:property name="CGMES.normalValue_CurrentLimit_patl" value="461.8804"/>
                    <iidm:property name="CGMES.OperationalLimitSetName" value="Limits at Port 1"/>
                    <iidm:property name="CGMES.OperationalLimitSetRdfID" value="_83f719ad-2083-44ea-9ebc-9f456c114bdb"/>
                    <iidm:property name="CGMES.OperationalLimit_CurrentLimit_patl" value="_bd39f428-7e49-4a1c-946a-05e217267a78"/>
                    <iidm:currentLimits permanentLimit="461.8804"/>
                </iidm:operationalLimitsGroup1>
                <iidm:operationalLimitsGroup2 id="_d47a27cc-9fad-40f2-a08c-37e545c268df">
                    <iidm:property name="CGMES.normalValue_CurrentLimit_patl" value="839.7826"/>
                    <iidm:property name="CGMES.OperationalLimitSetName" value="Limits at Port 2"/>
                    <iidm:property name="CGMES.OperationalLimitSetRdfID" value="_d47a27cc-9fad-40f2-a08c-37e545c268df"/>
                    <iidm:property name="CGMES.OperationalLimit_CurrentLimit_patl" value="_9304a308-f967-4dbb-ae12-70a550d046c2"/>
                    <iidm:currentLimits permanentLimit="839.7826"/>
                </iidm:operationalLimitsGroup2>
            </iidm:twoWindingsTransformer>
        </iidm:substation>
        <iidm:area id="_31b2fe09-63f6-44f6-9b4f-01dbe7e4944a" name="NL" areaType="ControlAreaTypeKind.Interchange" interchangeTarget="-237.3313">
            <iidm:property name="pTolerance" value="10"/>
            <iidm:areaBoundary ac="true" type="boundaryRef" id="_a279a3dc-550b-426c-af3a-61b7be508dcc"/>
            <iidm:areaBoundary ac="true" type="boundaryRef" id="_dad02278-bd25-476f-8f58-dbe44be72586"/>
            <iidm:areaBoundary ac="true" type="boundaryRef" id="_e8acf6b6-99cb-45ad-b8dc-16c7866a4ddc"/>
            <iidm:areaBoundary ac="true" type="boundaryRef" id="_7f43f508-2496-4b64-9146-0a40406cbe49"/>
            <iidm:areaBoundary ac="true" type="boundaryRef" id="_8fdc7abd-3746-481a-a65e-3df56acd8b13"/>
        </iidm:area>
        <iidm:extension id="_69add5b4-70bd-4360-8a93-286256c0d38b">
            <ld:detail fixedActivePower="0.0" fixedReactivePower="0.0" variableActivePower="90.0" variableReactivePower="280.0"/>
        </iidm:extension>
        <iidm:extension id="_9c3b8f97-7972-477d-9dc8-87365cc0ad0e">
            <refpri:referencePriorities>
                <refpri:referencePriority priority="1" id="_9c3b8f97-7972-477d-9dc8-87365cc0ad0e"/>
            </refpri:referencePriorities>
            <crc:coordinatedReactiveControl qPercent="100.0"/>
            <apc:activePowerControl participate="true" participationFactor="1.0"/>
        </iidm:extension>
        <iidm:extension id="_2184f365-8cd5-4b5d-8a28-9d68603bb6a4">
            <ctc:cgmesTapChangers>
                <ctc:tapChanger id="_ee649b97-d2ec-47e1-976f-0f4d9f50fa11" type="PhaseTapChangerTabular" step="17"/>
            </ctc:cgmesTapChangers>
        </iidm:extension>
        <iidm:extension id="urn:uuid:4f4a3f29-6892-49ea-bfc1-92051973c799">
            <cmm:cgmesMetadataModels>
                <cmm:model subset="EQUIPMENT_BOUNDARY" modelingAuthoritySet="http://entsoe.eu/boundary" id="urn:uuid:536f9bf1-3f8f-a546-87e3-7af2272f29b7" version="5" description="CGMES Conformity Assessment Test Configuration. The Test Configuration is owned by ENTSO-E and is provided by ENTSO-E “as it is”. To the fullest extent permitted by law, ENTSO-E shall not be liable for any damages of any kind arising out of the use of the model (including any of its subsequent modifications). ENTSO-E neither warrants, nor represents that the use of the model will not infringe the rights of third parties. Any use of the model shall include a reference to ENTSO-E. ENTSO-E web site is the only official source of information related to the model.">
                    <cmm:profile>http://iec.ch/TC57/ns/CIM/EquipmentBoundary-EU/3.0</cmm:profile>
                </cmm:model>
                <cmm:model subset="EQUIPMENT" modelingAuthoritySet="http://tennet.nl/CGMES" id="urn:uuid:4f4a3f29-6892-49ea-bfc1-92051973c799" version="5" description="CGMES Conformity Assessment Test Configuration. The Test Configuration is owned by ENTSO-E and is provided by ENTSO-E “as it is”. To the fullest extent permitted by law, ENTSO-E shall not be liable for any damages of any kind arising out of the use of the model (including any of its subsequent modifications). ENTSO-E neither warrants, nor represents that the use of the model will not infringe the rights of third parties. Any use of the model shall include a reference to ENTSO-E. ENTSO-E web site is the only official source of information related to the model.">
                    <cmm:profile>http://iec.ch/TC57/ns/CIM/CoreEquipment-EU/3.0</cmm:profile>
                    <cmm:profile>http://iec.ch/TC57/ns/CIM/Operation-EU/3.0</cmm:profile>
                    <cmm:profile>http://iec.ch/TC57/ns/CIM/ShortCircuit-EU/3.0</cmm:profile>
                    <cmm:dependentOnModel>urn:uuid:2399cbd0-9a39-11e0-aa80-0800200c9a66</cmm:dependentOnModel>
                </cmm:model>
                <cmm:model subset="TOPOLOGY" modelingAuthoritySet="http://tennet.nl/CGMES" id="urn:uuid:0ab8469f-4776-43fe-b1cb-2ceaf35c34f3" version="5" description="CGMES Conformity Assessment Test Configuration. The Test Configuration is owned by ENTSO-E and is provided by ENTSO-E “as it is”. To the fullest extent permitted by law, ENTSO-E shall not be liable for any damages of any kind arising out of the use of the model (including any of its subsequent modifications). ENTSO-E neither warrants, nor represents that the use of the model will not infringe the rights of third parties. Any use of the model shall include a reference to ENTSO-E. ENTSO-E web site is the only official source of information related to the model.">
                    <cmm:profile>http://iec.ch/TC57/ns/CIM/Topology-EU/3.0</cmm:profile>
                    <cmm:dependentOnModel>urn:uuid:1e239780-b5f9-4ed1-ad73-041bc406bcfc</cmm:dependentOnModel>
                    <cmm:dependentOnModel>urn:uuid:3a2a0416-c6a8-49a9-9f23-b8ec7cb29bae</cmm:dependentOnModel>
                </cmm:model>
                <cmm:model subset="STATE_VARIABLES" modelingAuthoritySet="http://tennet.nl/CGMES" id="urn:uuid:ff194bdc-6b0b-4669-9aaa-94c4f449e47a" version="1" description="CGMES Conformity Assessment Test Configuration. The Test Configuration is owned by ENTSO-E and is provided by ENTSO-E “as it is”. To the fullest extent permitted by law, ENTSO-E shall not be liable for any damages of any kind arising out of the use of the model (including any of its subsequent modifications). ENTSO-E neither warrants, nor represents that the use of the model will not infringe the rights of third parties. Any use of the model shall include a reference to ENTSO-E. ENTSO-E web site is the only official source of information related to the model.">
                    <cmm:profile>http://iec.ch/TC57/ns/CIM/StateVariables-EU/3.0</cmm:profile>
                    <cmm:dependentOnModel>urn:uuid:0ab8469f-4776-43fe-b1cb-2ceaf35c34f3</cmm:dependentOnModel>
                </cmm:model>
                <cmm:model subset="STEADY_STATE_HYPOTHESIS" modelingAuthoritySet="http://tennet.nl/CGMES" id="urn:uuid:1e239780-b5f9-4ed1-ad73-041bc406bcfc" version="5" description="CGMES Conformity Assessment Test Configuration. The Test Configuration is owned by ENTSO-E and is provided by ENTSO-E “as it is”. To the fullest extent permitted by law, ENTSO-E shall not be liable for any damages of any kind arising out of the use of the model (including any of its subsequent modifications). ENTSO-E neither warrants, nor represents that the use of the model will not infringe the rights of third parties. Any use of the model shall include a reference to ENTSO-E. ENTSO-E web site is the only official source of information related to the model.">
                    <cmm:profile>http://iec.ch/TC57/ns/CIM/SteadyStateHypothesis-EU/3.0</cmm:profile>
                    <cmm:dependentOnModel>urn:uuid:4f4a3f29-6892-49ea-bfc1-92051973c799</cmm:dependentOnModel>
                </cmm:model>
                <cmm:model subset="DIAGRAM_LAYOUT" modelingAuthoritySet="http://tennet.nl/CGMES" id="urn:uuid:e6710550-44d9-46fb-a519-49e735099074" version="5" description="CGMES Conformity Assessment Test Configuration. The Test Configuration is owned by ENTSO-E and is provided by ENTSO-E “as it is”. To the fullest extent permitted by law, ENTSO-E shall not be liable for any damages of any kind arising out of the use of the model (including any of its subsequent modifications). ENTSO-E neither warrants, nor represents that the use of the model will not infringe the rights of third parties. Any use of the model shall include a reference to ENTSO-E. ENTSO-E web site is the only official source of information related to the model.">
                    <cmm:profile>http://iec.ch/TC57/ns/CIM/DiagramLayout-EU/3.0</cmm:profile>
                    <cmm:dependentOnModel>urn:uuid:4f4a3f29-6892-49ea-bfc1-92051973c799</cmm:dependentOnModel>
                </cmm:model>
                <cmm:model subset="GEOGRAPHICAL_LOCATION" modelingAuthoritySet="http://tennet.nl/CGMES" id="urn:uuid:68e7ae00-3510-43ec-91dd-214adedc8561" version="5" description="CGMES Conformity Assessment Test Configuration. The Test Configuration is owned by ENTSO-E and is provided by ENTSO-E “as it is”. To the fullest extent permitted by law, ENTSO-E shall not be liable for any damages of any kind arising out of the use of the model (including any of its subsequent modifications). ENTSO-E neither warrants, nor represents that the use of the model will not infringe the rights of third parties. Any use of the model shall include a reference to ENTSO-E. ENTSO-E web site is the only official source of information related to the model.">
                    <cmm:profile>http://iec.ch/TC57/ns/CIM/GeographicalLocation-EU/3.0</cmm:profile>
                    <cmm:dependentOnModel>urn:uuid:4f4a3f29-6892-49ea-bfc1-92051973c799</cmm:dependentOnModel>
                </cmm:model>
            </cmm:cgmesMetadataModels>
            <bv:baseVoltageMapping>
                <bv:baseVoltage nominalVoltage="15.75" source="IGM" id="_abb2348a-aa10-446f-9f5d-49f93f211535"/>
                <bv:baseVoltage nominalVoltage="220.0" source="BOUNDARY" id="_a7f1d8de-d658-428a-821b-3a5ae5965fd1"/>
                <bv:baseVoltage nominalVoltage="225.0" source="BOUNDARY" id="_63893f24-5b4e-407c-9a1e-4ff71121f33c"/>
                <bv:baseVoltage nominalVoltage="380.0" source="BOUNDARY" id="_35cf638d-9a9d-4ae5-ae90-2f01ef898cb6"/>
                <bv:baseVoltage nominalVoltage="400.0" source="BOUNDARY" id="_597e44dc-2a6e-4c62-82f3-f82cc46e0e14"/>
            </bv:baseVoltageMapping>
            <cc:cimCharacteristics topologyKind="NODE_BREAKER" cimVersion="100"/>
        </iidm:extension>
        <iidm:extension id="_b1e03a8f-6a11-4454-af58-4a4a680e857f">
...